Version 4
SHEET 1 880 680
WIRE 240 128 64 128
