Version 4
SHEET 1 1440 680
WIRE 448 -32 224 -32
WIRE 560 -32 512 -32
WIRE 432 64 400 64
WIRE 560 64 560 -32
WIRE 560 64 512 64
WIRE 96 160 48 160
WIRE 224 160 224 -32
WIRE 224 160 176 160
WIRE 288 160 224 160
WIRE 400 160 400 64
WIRE 400 160 352 160
WIRE 416 160 400 160
WIRE 560 176 560 64
WIRE 560 176 480 176
WIRE 752 176 560 176
WIRE 416 192 400 192
WIRE 48 208 48 160
WIRE 224 208 224 160
WIRE 560 208 560 176
WIRE 400 304 400 192
WIRE 560 304 560 288
WIRE 560 304 400 304
WIRE 48 320 48 288
WIRE 224 320 224 288
WIRE 560 320 560 304
FLAG 224 320 0
FLAG 560 400 0
FLAG 48 320 0
FLAG 48 160 Vin
IOPIN 48 160 In
FLAG 752 176 Vout
IOPIN 752 176 Out
SYMBOL res 192 144 R90
WINDOW 0 0 56 VBottom 2
WINDOW 3 32 56 VTop 2
SYMATTR InstName R1
SYMATTR Value 76.14k
SYMBOL res 240 304 R180
WINDOW 0 36 76 Left 2
WINDOW 3 36 40 Left 2
SYMATTR InstName R1b
SYMATTR Value 2.168k
SYMBOL res 528 48 R90
WINDOW 0 0 56 VBottom 2
WINDOW 3 32 56 VTop 2
SYMATTR InstName R2
SYMATTR Value 18.97k
SYMBOL res 544 192 R0
SYMATTR InstName R4
SYMATTR Value 8.223k
SYMBOL res 544 304 R0
SYMATTR InstName R5
SYMATTR Value 1.677k
SYMBOL cap 352 144 R90
WINDOW 0 0 32 VBottom 2
WINDOW 3 32 32 VTop 2
SYMATTR InstName C1
SYMATTR Value 470p
SYMBOL cap 512 -48 R90
WINDOW 0 0 32 VBottom 2
WINDOW 3 32 32 VTop 2
SYMATTR InstName C2
SYMATTR Value 470p
SYMBOL Opamps\\opamp 448 112 R0
SYMATTR InstName U2
SYMBOL voltage 48 192 R0
WINDOW 123 24 124 Left 2
WINDOW 39 0 0 Left 0
SYMATTR Value2 AC 1
SYMATTR InstName V1
SYMATTR Value ""
TEXT 264 336 Left 2 !.ac dec 1000 40k 70k
TEXT 48 8 Left 2 !.lib opamp.sub
