Version 4
SHEET 1 2528 1152
WIRE 1680 -192 -48 -192
WIRE 1184 -112 1040 -112
WIRE 1296 -112 1264 -112
WIRE 1376 -112 1296 -112
WIRE 1568 -112 1456 -112
WIRE 144 -96 0 -96
WIRE 256 -96 224 -96
WIRE 336 -96 256 -96
WIRE 528 -96 416 -96
WIRE -288 -48 -288 -128
WIRE 1040 16 1040 -112
WIRE 0 32 0 -96
WIRE -288 64 -288 32
WIRE -144 64 -288 64
WIRE 1152 80 960 80
WIRE 1184 80 1152 80
WIRE 1296 80 1296 -112
WIRE 1296 80 1264 80
WIRE 1392 80 1328 80
WIRE -288 96 -288 64
WIRE -48 96 -48 -192
WIRE 112 96 -48 96
WIRE 144 96 112 96
WIRE 256 96 256 -96
WIRE 256 96 224 96
WIRE 352 96 288 96
WIRE 800 96 704 96
WIRE 1568 96 1568 -112
WIRE 1568 96 1520 96
WIRE 1680 96 1680 -192
WIRE 1680 96 1568 96
WIRE 528 112 528 -96
WIRE 528 112 480 112
WIRE 704 112 704 96
WIRE 1296 112 1296 80
WIRE 1392 112 1296 112
WIRE 1408 112 1392 112
WIRE 1568 112 1568 96
WIRE 256 128 256 96
WIRE 352 128 256 128
WIRE 368 128 352 128
WIRE 528 128 528 112
WIRE 800 128 784 128
WIRE 1520 128 1520 96
WIRE 1520 128 1456 128
WIRE 480 144 480 112
WIRE 480 144 416 144
WIRE 912 144 864 144
WIRE 960 144 960 80
WIRE 1152 208 1152 80
WIRE 1152 208 1024 208
WIRE 784 224 784 128
WIRE 912 224 912 144
WIRE 912 224 784 224
WIRE 1152 224 1152 208
WIRE 1184 224 1152 224
WIRE 1328 224 1328 80
WIRE 1328 224 1264 224
WIRE 1424 224 1328 224
WIRE 1504 224 1488 224
WIRE 1568 224 1568 192
WIRE 1568 224 1504 224
WIRE 112 240 112 96
WIRE 144 240 112 240
WIRE 288 240 288 96
WIRE 288 240 224 240
WIRE 384 240 288 240
WIRE 464 240 448 240
WIRE 528 240 528 208
WIRE 528 240 464 240
WIRE 1328 240 1328 224
WIRE 288 256 288 240
WIRE 1568 256 1568 224
WIRE 528 272 528 240
WIRE -288 288 -288 176
WIRE 0 288 0 224
WIRE 1328 336 1328 320
WIRE 288 352 288 336
WIRE 1024 352 1024 288
WIRE 1152 384 1152 224
WIRE 1184 384 1152 384
WIRE 1504 384 1504 224
WIRE 1504 384 1248 384
WIRE 112 400 112 240
WIRE 144 400 112 400
WIRE 464 400 464 240
WIRE 464 400 208 400
WIRE 1568 400 1568 320
WIRE 528 416 528 336
FLAG 0 288 0
FLAG 0 32 0
FLAG 528 416 0
FLAG -144 64 0
FLAG -288 -128 +Vcc
FLAG 416 80 +Vcc
FLAG -288 288 -Vcc
FLAG 416 112 -Vcc
FLAG 288 352 0
FLAG 1040 16 0
FLAG 1568 400 0
FLAG 1456 64 +Vcc
FLAG 1456 96 -Vcc
FLAG 1328 336 0
FLAG 864 80 +Vcc
FLAG 864 112 -Vcc
FLAG 1024 352 0
SYMBOL voltage 0 128 R0
WINDOW 123 24 124 Left 2
WINDOW 39 0 0 Left 2
SYMATTR Value2 AC 1
SYMATTR InstName V1
SYMATTR Value ""
SYMBOL res 240 80 R90
WINDOW 0 0 56 VBottom 2
WINDOW 3 32 56 VTop 2
SYMATTR InstName Ra2_1
SYMATTR Value {Ra2__1}
SYMBOL res 240 -112 R90
WINDOW 0 0 56 VBottom 2
WINDOW 3 32 56 VTop 2
SYMATTR InstName Ra1_1
SYMATTR Value {Ra1__1}
SYMBOL res 432 -112 R90
WINDOW 0 0 56 VBottom 2
WINDOW 3 32 56 VTop 2
SYMATTR InstName Rb_1
SYMATTR Value {Rb__1}
SYMBOL res 544 224 R180
WINDOW 0 36 76 Left 2
WINDOW 3 36 40 Left 2
SYMATTR InstName R1_1
SYMATTR Value {R1__1}
SYMBOL res 128 256 R270
WINDOW 0 32 56 VTop 2
WINDOW 3 0 56 VBottom 2
SYMATTR InstName R42_1
SYMATTR Value {R42__1}
SYMBOL res 272 240 R0
SYMATTR InstName R41_1
SYMATTR Value {R41__1}
SYMBOL cap 448 224 R90
WINDOW 0 0 32 VBottom 2
WINDOW 3 32 32 VTop 2
SYMATTR InstName c3_1
SYMATTR Value {C3__1}
SYMBOL cap 544 336 R180
WINDOW 0 24 56 Left 2
WINDOW 3 24 8 Left 2
SYMATTR InstName c21_1
SYMATTR Value {C21__1}
SYMBOL cap 144 416 R270
WINDOW 0 32 32 VTop 2
WINDOW 3 0 32 VBottom 2
SYMATTR InstName c22_1
SYMATTR Value {C22__1}
SYMBOL voltage -288 -64 R0
SYMATTR InstName V2
SYMATTR Value 15
SYMBOL voltage -288 80 R0
SYMATTR InstName V3
SYMATTR Value 15
SYMBOL res 1280 64 R90
WINDOW 0 0 56 VBottom 2
WINDOW 3 32 56 VTop 2
SYMATTR InstName Ra2_2
SYMATTR Value {Ra2__2}
SYMBOL res 1280 -128 R90
WINDOW 0 0 56 VBottom 2
WINDOW 3 32 56 VTop 2
SYMATTR InstName Ra1_2
SYMATTR Value {Ra1__2}
SYMBOL res 1472 -128 R90
WINDOW 0 0 56 VBottom 2
WINDOW 3 32 56 VTop 2
SYMATTR InstName Rb_2
SYMATTR Value {Rb__2}
SYMBOL res 1584 208 R180
WINDOW 0 36 76 Left 2
WINDOW 3 36 40 Left 2
SYMATTR InstName R1_2
SYMATTR Value {R1__2}
SYMBOL res 1168 240 R270
WINDOW 0 32 56 VTop 2
WINDOW 3 0 56 VBottom 2
SYMATTR InstName R42_2
SYMATTR Value {R42__2}
SYMBOL res 1312 224 R0
SYMATTR InstName R41_2
SYMATTR Value {R41__2}
SYMBOL cap 1488 208 R90
WINDOW 0 0 32 VBottom 2
WINDOW 3 32 32 VTop 2
SYMATTR InstName c3_2
SYMATTR Value {C3__2}
SYMBOL cap 1584 320 R180
WINDOW 0 24 56 Left 2
WINDOW 3 24 8 Left 2
SYMATTR InstName c21_2
SYMATTR Value {C21__2}
SYMBOL cap 1184 400 R270
WINDOW 0 32 32 VTop 2
WINDOW 3 0 32 VBottom 2
SYMATTR InstName c22_2
SYMATTR Value {C22__2}
SYMBOL AutoGenerated\\TL082 384 112 R0
SYMATTR InstName U1
SYMBOL AutoGenerated\\TL082 832 112 R0
SYMATTR InstName U2
SYMBOL AutoGenerated\\TL082 1424 96 R0
SYMATTR InstName U3
SYMBOL voltage 1024 192 R0
WINDOW 123 24 124 Left 2
WINDOW 39 0 0 Left 2
SYMATTR Value2 AC 1
SYMATTR InstName V4
SYMATTR Value ""
TEXT -280 -376 Left 2 !.param R41__1=2490.22 R42__1=5645.81 Ra1__1=12263.1 Ra2__1=17993.26 R1__1=344.39 Rb__1=2000 C21__1=1.5032n C22__1=8.4967n C3__1=10n
TEXT -272 -280 Left 2 !.param R41__2=128.4825 R42__2=2931.8161 Ra1__2=82001.452 Ra2__2=633.515k R1__2=88.4 Rb__2=20k C21__2=10.0708n C22__2=36.929n C3__2=47n
TEXT -320 448 Left 2 !.ac dec 250 20 1meg
TEXT -320 496 Left 2 !.param tola 0.05
TEXT -296 560 Left 2 !.step param R41__2 116 140 10
TEXT 88 560 Left 2 !.step param R42__2 2631 3231 150
